data_image0
_chemical_formula_structural       Li20Ge2P4S24Li20Ge2P4S24Li20Ge2P4S24Li20Ge2P4S24Li20Ge2P4S24Li20Ge2P4S24Li20Ge2P4S24Li20Ge2P4S24Li20Ge2P4S24Li20Ge2P4S24Li20Ge2P4S24Li20Ge2P4S24
_chemical_formula_sum              "Li240 Ge24 P48 S288"
_cell_length_a       15.84786796
_cell_length_b       16.0675373
_cell_length_c       38.017390260000006
_cell_angle_alpha    78.51114655
_cell_angle_beta     74.37251282
_cell_angle_gamma    71.6965332

_space_group_name_H-M_alt    "P 1"
_space_group_IT_number       1

loop_
  _space_group_symop_operation_xyz
  'x, y, z'

loop_
  _atom_site_type_symbol
  _atom_site_label
  _atom_site_symmetry_multiplicity
  _atom_site_fract_x
  _atom_site_fract_y
  _atom_site_fract_z
  _atom_site_occupancy
  Li  Li1       1.0  0.13810732999999983  0.39467448000000016  0.02502935333333333  1.0000
  Li  Li2       1.0  0.45478343999999987  0.074810615  0.05057518666666666  1.0000
  Li  Li3       1.0  0.3912981149999999  0.15481803  0.13043878333333334  1.0000
  Li  Li4       1.0  0.04778651999999996  0.272267195  0.14233461000000003  1.0000
  Li  Li5       1.0  0.25946778  0.25611329  0.07345830999999999  1.0000
  Li  Li6       1.0  0.22650329999999994  0.07282070000000002  0.1281927833333333  1.0000
  Li  Li7       1.0  0.13192249999999997  0.142712595  0.18985466  1.0000
  Li  Li8       1.0  0.17262272500000003  0.11554593000000003  0.3155280733333333  1.0000
  Li  Li9       1.0  0.3794923399999999  0.4200622150000002  0.29584666  1.0000
  Li  Li10      1.0  0.49303158999999996  0.2979676700000002  0.018069219999999997  1.0000
  Li  Li11      1.0  0.07313608999999996  0.41454255500000026  0.23836739999999998  1.0000
  Li  Li12      1.0  0.4249970599999997  0.3160679950000002  0.21721215999999996  1.0000
  Li  Li13      1.0  0.2494684149999999  0.013614395000000022  0.23886867333333328  1.0000
  Li  Li14      1.0  0.10415412500000001  0.16989936000000005  0.07196923999999999  1.0000
  Li  Li15      1.0  0.4089207949999999  0.3484821600000001  0.09094103333333331  1.0000
  Li  Li16      1.0  0.37827804499999984  0.1313166300000001  0.2102131033333333  1.0000
  Li  Li17      1.0  0.027354075000000044  0.4842321  0.17674333  1.0000
  Li  Li18      1.0  0.015096379999999977  0.02264528499999999  0.29462339333333337  1.0000
  Li  Li19      1.0  0.31532156499999997  0.19903677500000017  0.27735034666666664  1.0000
  Li  Li20      1.0  0.21278571999999998  0.3440459650000001  0.29464372000000005  1.0000
  Ge  Ge1       1.0  0.279419305  0.0018707300000000012  0.03549974  1.0000
  Ge  Ge2       1.0  0.03964855000000003  0.22569042500000003  0.26592941999999997  1.0000
  P   P1        1.0  0.3505833149999998  0.19055576500000007  0.008888196666666667  1.0000
  P   P2        1.0  0.32133484  0.42797798000000004  0.17009089333333333  1.0000
  P   P3        1.0  0.23608963000000002  0.321116685  0.17570891  1.0000
  P   P4        1.0  0.06486775499999996  0.467951385  0.09455400666666666  1.0000
  S   S1        1.0  0.09502316999999996  0.31106537500000014  0.07904590333333332  1.0000
  S   S2        1.0  0.19919246499999987  0.23196518500000007  0.006205109999999999  1.0000
  S   S3        1.0  0.13389252000000001  0.015707575000000012  0.2174602333333333  1.0000
  S   S4        1.0  0.4684346599999998  0.4418679750000001  0.12966296  1.0000
  S   S5        1.0  0.02095106  0.14382945000000008  0.31487901999999995  1.0000
  S   S6        1.0  0.4212687899999999  0.462920785  0.22910126000000006  1.0000
  S   S7        1.0  0.06289868  0.10117876500000006  0.13326075666666665  1.0000
  S   S8        1.0  0.3855299349999999  0.282354535  0.1603026  1.0000
  S   S9        1.0  0.43744089999999997  0.206668065  0.06391138333333332  1.0000
  S   S10       1.0  0.2114163649999997  0.47381565  0.3050860966666667  1.0000
  S   S11       1.0  0.31821533999999985  0.3682357350000002  0.03780385  1.0000
  S   S12       1.0  0.4847781349999998  0.15853607500000008  0.23308736000000005  1.0000
  S   S13       1.0  0.27672204499999997  0.35372618000000017  0.21879889666666666  1.0000
  S   S14       1.0  0.22029986999999984  0.22835925000000004  0.13937547666666666  1.0000
  S   S15       1.0  0.058062460000000024  0.3532916900000001  0.29338500999999995  1.0000
  S   S16       1.0  0.35756149999999964  0.061528295000000024  0.31608959  1.0000
  S   S17       1.0  0.23236711499999985  0.431075545  0.13287478666666666  1.0000
  S   S18       1.0  0.4870140250000001  0.445216415  0.045169980000000005  1.0000
  S   S19       1.0  0.32486146499999985  0.05674579000000001  0.16991061  1.0000
  S   S20       1.0  0.2151548100000001  0.17090142000000005  0.24603076666666665  1.0000
  S   S21       1.0  0.30378186499999993  0.10449618000000001  0.06317057666666666  1.0000
  S   S22       1.0  0.141355065  0.032236870000000015  0.05380921999999999  1.0000
  S   S23       1.0  0.3929808749999998  0.282940775  0.29513724666666674  1.0000
  S   S24       1.0  0.08939725999999987  0.30280614  0.20084826  1.0000
  Li  Li21      1.0  0.13810732999999992  0.3946744800000001  0.3583626866666667  1.0000
  Li  Li22      1.0  0.4547834399999998  0.074810615  0.38390852  1.0000
  Li  Li23      1.0  0.39129811499999995  0.15481803  0.4637721166666666  1.0000
  Li  Li24      1.0  0.04778651999999996  0.272267195  0.47566794333333334  1.0000
  Li  Li25      1.0  0.2594677799999999  0.25611329  0.4067916433333333  1.0000
  Li  Li26      1.0  0.2265033  0.07282070000000003  0.46152611666666665  1.0000
  Li  Li27      1.0  0.13192249999999994  0.142712595  0.5231879933333333  1.0000
  Li  Li28      1.0  0.17262272500000012  0.11554593000000005  0.6488614066666666  1.0000
  Li  Li29      1.0  0.37949234  0.4200622150000002  0.6291799933333333  1.0000
  Li  Li30      1.0  0.49303159000000013  0.29796767000000013  0.3514025533333333  1.0000
  Li  Li31      1.0  0.07313608999999996  0.4145425550000003  0.5717007333333333  1.0000
  Li  Li32      1.0  0.42499705999999987  0.3160679950000001  0.5505454933333332  1.0000
  Li  Li33      1.0  0.24946841499999983  0.013614395000000022  0.5722020066666667  1.0000
  Li  Li34      1.0  0.10415412499999994  0.16989936000000008  0.4053025733333333  1.0000
  Li  Li35      1.0  0.40892079499999995  0.34848216000000004  0.4242743666666666  1.0000
  Li  Li36      1.0  0.37827804499999973  0.1313166300000001  0.5435464366666667  1.0000
  Li  Li37      1.0  0.02735407500000007  0.48423210000000005  0.5100766633333332  1.0000
  Li  Li38      1.0  0.015096379999999977  0.02264528499999999  0.6279567266666667  1.0000
  Li  Li39      1.0  0.31532156499999997  0.1990367750000002  0.6106836799999998  1.0000
  Li  Li40      1.0  0.2127857199999999  0.34404596500000023  0.6279770533333333  1.0000
  Ge  Ge3       1.0  0.27941930499999995  0.0018707299999999995  0.3688330733333333  1.0000
  Ge  Ge4       1.0  0.03964854999999999  0.225690425  0.5992627533333333  1.0000
  P   P5        1.0  0.3505833149999997  0.19055576500000007  0.34222153  1.0000
  P   P6        1.0  0.32133484  0.42797798  0.5034242266666666  1.0000
  P   P7        1.0  0.2360896299999999  0.321116685  0.5090422433333334  1.0000
  P   P8        1.0  0.06486775499999999  0.467951385  0.42788733999999995  1.0000
  S   S25       1.0  0.09502316999999996  0.31106537500000014  0.4123792366666666  1.0000
  S   S26       1.0  0.1991924649999998  0.23196518500000002  0.33953844333333333  1.0000
  S   S27       1.0  0.13389251999999996  0.01570757500000002  0.5507935666666667  1.0000
  S   S28       1.0  0.46843465999999967  0.4418679750000001  0.46299629333333325  1.0000
  S   S29       1.0  0.02095106  0.14382945000000008  0.6482123533333333  1.0000
  S   S30       1.0  0.42126878999999984  0.46292078500000017  0.5624345933333335  1.0000
  S   S31       1.0  0.06289867999999996  0.10117876500000003  0.46659409  1.0000
  S   S32       1.0  0.3855299349999998  0.282354535  0.4936359333333333  1.0000
  S   S33       1.0  0.4374408999999999  0.20666806500000004  0.3972447166666666  1.0000
  S   S34       1.0  0.21141636499999986  0.47381565000000003  0.63841943  1.0000
  S   S35       1.0  0.3182153399999999  0.3682357350000001  0.37113718333333334  1.0000
  S   S36       1.0  0.48477813499999955  0.1585360750000001  0.5664206933333333  1.0000
  S   S37       1.0  0.27672204499999986  0.3537261800000001  0.5521322300000001  1.0000
  S   S38       1.0  0.22029986999999995  0.22835925000000004  0.4727088099999999  1.0000
  S   S39       1.0  0.05806246000000005  0.3532916900000001  0.6267183433333332  1.0000
  S   S40       1.0  0.3575614999999996  0.061528295  0.6494229233333333  1.0000
  S   S41       1.0  0.23236711499999968  0.431075545  0.46620812  1.0000
  S   S42       1.0  0.4870140250000001  0.445216415  0.3785033133333333  1.0000
  S   S43       1.0  0.3248614649999998  0.05674579000000003  0.5032439433333333  1.0000
  S   S44       1.0  0.2151548100000001  0.17090142000000008  0.5793640999999999  1.0000
  S   S45       1.0  0.30378186499999993  0.10449618000000001  0.39650390999999996  1.0000
  S   S46       1.0  0.141355065  0.032236870000000015  0.3871425533333333  1.0000
  S   S47       1.0  0.3929808749999996  0.282940775  0.62847058  1.0000
  S   S48       1.0  0.08939726000000003  0.30280614  0.5341815933333333  1.0000
  Li  Li41      1.0  0.13810732999999997  0.3946744800000001  0.69169602  1.0000
  Li  Li42      1.0  0.45478343999999987  0.07481061500000002  0.7172418533333332  1.0000
  Li  Li43      1.0  0.3912981149999998  0.15481803000000008  0.7971054499999999  1.0000
  Li  Li44      1.0  0.047786519999999846  0.272267195  0.8090012766666667  1.0000
  Li  Li45      1.0  0.2594677799999999  0.25611328999999994  0.7401249766666667  1.0000
  Li  Li46      1.0  0.22650330000000005  0.07282070000000003  0.7948594499999999  1.0000
  Li  Li47      1.0  0.13192249999999983  0.14271259500000003  0.8565213266666667  1.0000
  Li  Li48      1.0  0.17262272499999992  0.11554593000000002  0.9821947400000001  1.0000
  Li  Li49      1.0  0.37949233999999993  0.4200622150000001  0.9625133266666666  1.0000
  Li  Li50      1.0  0.4930315900000001  0.29796767000000024  0.6847358866666666  1.0000
  Li  Li51      1.0  0.07313608999999999  0.4145425550000002  0.9050340666666666  1.0000
  Li  Li52      1.0  0.42499705999999987  0.3160679950000001  0.8838788266666666  1.0000
  Li  Li53      1.0  0.24946841499999994  0.01361439500000005  0.9055353399999998  1.0000
  Li  Li54      1.0  0.10415412499999996  0.16989936000000005  0.7386359066666667  1.0000
  Li  Li55      1.0  0.40892079500000006  0.34848216000000004  0.7576076999999999  1.0000
  Li  Li56      1.0  0.37827804499999984  0.1313166300000001  0.8768797699999998  1.0000
  Li  Li57      1.0  0.027354074999999985  0.48423209999999994  0.8434099966666667  1.0000
  Li  Li58      1.0  0.015096380000000072  0.02264528500000005  0.9612900599999998  1.0000
  Li  Li59      1.0  0.31532156499999997  0.1990367750000001  0.9440170133333333  1.0000
  Li  Li60      1.0  0.21278571999999998  0.3440459650000001  0.9613103866666667  1.0000
  Ge  Ge5       1.0  0.27941930500000006  0.0018707299999999995  0.7021664066666666  1.0000
  Ge  Ge6       1.0  0.03964855000000009  0.22569042500000003  0.9325960866666666  1.0000
  P   P9        1.0  0.3505833149999999  0.19055576500000007  0.6755548633333333  1.0000
  P   P10       1.0  0.32133484000000023  0.42797798000000004  0.8367575599999999  1.0000
  P   P11       1.0  0.2360896299999999  0.321116685  0.8423755766666665  1.0000
  P   P12       1.0  0.06486775499999993  0.46795138500000005  0.7612206733333333  1.0000
  S   S49       1.0  0.09502316999999998  0.3110653750000001  0.74571257  1.0000
  S   S50       1.0  0.19919246499999999  0.23196518500000016  0.6728717766666665  1.0000
  S   S51       1.0  0.13389252000000007  0.01570757500000002  0.8841268999999999  1.0000
  S   S52       1.0  0.4684346599999998  0.44186797500000013  0.7963296266666666  1.0000
  S   S53       1.0  0.020951059999999994  0.1438294500000001  0.9815456866666665  1.0000
  S   S54       1.0  0.42126879  0.462920785  0.8957679266666666  1.0000
  S   S55       1.0  0.06289868000000001  0.10117876500000006  0.7999274233333332  1.0000
  S   S56       1.0  0.3855299349999999  0.282354535  0.8269692666666666  1.0000
  S   S57       1.0  0.43744089999999985  0.20666806499999998  0.7305780500000001  1.0000
  S   S58       1.0  0.2114163649999997  0.47381565  0.9717527633333333  1.0000
  S   S59       1.0  0.3182153399999999  0.3682357350000001  0.7044705166666666  1.0000
  S   S60       1.0  0.48477813499999994  0.15853607500000003  0.8997540266666666  1.0000
  S   S61       1.0  0.2767220450000001  0.35372618000000017  0.8854655633333331  1.0000
  S   S62       1.0  0.2202998699999998  0.22835925000000004  0.8060421433333335  1.0000
  S   S63       1.0  0.05806245999999994  0.3532916900000001  0.9600516766666666  1.0000
  S   S64       1.0  0.3575614999999997  0.06152829500000008  0.9827562566666666  1.0000
  S   S65       1.0  0.2323671149999999  0.43107554500000006  0.7995414533333333  1.0000
  S   S66       1.0  0.4870140249999999  0.4452164150000001  0.7118366466666666  1.0000
  S   S67       1.0  0.32486146499999974  0.05674579000000003  0.8365772766666667  1.0000
  S   S68       1.0  0.21515481000000006  0.17090142000000008  0.9126974333333332  1.0000
  S   S69       1.0  0.30378186499999976  0.10449617999999998  0.7298372433333334  1.0000
  S   S70       1.0  0.141355065  0.03223687000000004  0.7204758866666666  1.0000
  S   S71       1.0  0.39298087499999984  0.28294077500000003  0.9618039133333333  1.0000
  S   S72       1.0  0.08939725999999985  0.3028061400000002  0.8675149266666666  1.0000
  Li  Li61      1.0  0.1381073299999999  0.89467448  0.02502935333333333  1.0000
  Li  Li62      1.0  0.45478343999999976  0.5748106150000001  0.05057518666666666  1.0000
  Li  Li63      1.0  0.3912981149999997  0.65481803  0.13043878333333334  1.0000
  Li  Li64      1.0  0.047786519999999916  0.7722671950000001  0.14233461000000003  1.0000
  Li  Li65      1.0  0.2594677799999999  0.7561132900000002  0.07345830999999999  1.0000
  Li  Li66      1.0  0.22650329999999994  0.5728207000000001  0.1281927833333333  1.0000
  Li  Li67      1.0  0.1319225  0.6427125950000001  0.18985466  1.0000
  Li  Li68      1.0  0.17262272499999998  0.6155459300000001  0.3155280733333333  1.0000
  Li  Li69      1.0  0.37949234  0.9200622150000002  0.29584666  1.0000
  Li  Li70      1.0  0.49303158999999996  0.7979676700000001  0.018069219999999997  1.0000
  Li  Li71      1.0  0.07313608999999996  0.9145425550000003  0.23836739999999998  1.0000
  Li  Li72      1.0  0.42499705999999976  0.8160679950000003  0.21721215999999996  1.0000
  Li  Li73      1.0  0.24946841499999978  0.5136143950000001  0.23886867333333328  1.0000
  Li  Li74      1.0  0.10415412499999997  0.66989936  0.07196923999999999  1.0000
  Li  Li75      1.0  0.40892079499999995  0.8484821600000002  0.09094103333333331  1.0000
  Li  Li76      1.0  0.37827804499999984  0.6313166300000003  0.2102131033333333  1.0000
  Li  Li77      1.0  0.027354075000000016  0.9842321000000002  0.17674333  1.0000
  Li  Li78      1.0  0.015096379999999921  0.5226452850000001  0.29462339333333337  1.0000
  Li  Li79      1.0  0.31532156499999986  0.6990367750000004  0.27735034666666664  1.0000
  Li  Li80      1.0  0.21278571999999993  0.8440459650000003  0.29464372000000005  1.0000
  Ge  Ge7       1.0  0.27941930500000006  0.50187073  0.03549974  1.0000
  Ge  Ge8       1.0  0.0396485500000001  0.7256904249999999  0.26592941999999997  1.0000
  P   P13       1.0  0.3505833149999998  0.6905557650000002  0.008888196666666667  1.0000
  P   P14       1.0  0.32133484  0.9279779800000001  0.17009089333333333  1.0000
  P   P15       1.0  0.2360896299999999  0.8211166850000002  0.17570891  1.0000
  P   P16       1.0  0.0648677549999999  0.9679513850000001  0.09455400666666666  1.0000
  S   S73       1.0  0.09502317000000002  0.8110653750000001  0.07904590333333332  1.0000
  S   S74       1.0  0.19919246499999987  0.7319651850000002  0.006205109999999999  1.0000
  S   S75       1.0  0.13389252000000004  0.5157075750000001  0.2174602333333333  1.0000
  S   S76       1.0  0.4684346599999999  0.9418679750000001  0.12966296  1.0000
  S   S77       1.0  0.020951059999999924  0.6438294500000002  0.31487901999999995  1.0000
  S   S78       1.0  0.4212687899999995  0.962920785  0.22910126000000006  1.0000
  S   S79       1.0  0.06289867999999993  0.6011787650000002  0.13326075666666665  1.0000
  S   S80       1.0  0.3855299349999997  0.7823545350000001  0.1603026  1.0000
  S   S81       1.0  0.43744089999999985  0.7066680650000002  0.06391138333333332  1.0000
  S   S82       1.0  0.21141636499999972  0.9738156500000001  0.3050860966666667  1.0000
  S   S83       1.0  0.3182153399999998  0.8682357350000002  0.03780385  1.0000
  S   S84       1.0  0.4847781349999999  0.6585360750000001  0.23308736000000005  1.0000
  S   S85       1.0  0.27672204499999986  0.8537261800000003  0.21879889666666666  1.0000
  S   S86       1.0  0.22029986999999976  0.7283592500000002  0.13937547666666666  1.0000
  S   S87       1.0  0.05806246000000004  0.85329169  0.29338500999999995  1.0000
  S   S88       1.0  0.35756149999999975  0.5615282949999999  0.31608959  1.0000
  S   S89       1.0  0.23236711499999982  0.9310755450000002  0.13287478666666666  1.0000
  S   S90       1.0  0.487014025  0.945216415  0.045169980000000005  1.0000
  S   S91       1.0  0.324861465  0.5567457899999999  0.16991061  1.0000
  S   S92       1.0  0.2151548100000001  0.6709014200000001  0.24603076666666665  1.0000
  S   S93       1.0  0.30378186499999993  0.6044961800000002  0.06317057666666666  1.0000
  S   S94       1.0  0.14135506499999997  0.53223687  0.05380921999999999  1.0000
  S   S95       1.0  0.3929808749999997  0.782940775  0.29513724666666674  1.0000
  S   S96       1.0  0.08939725999999984  0.8028061400000003  0.20084826  1.0000
  Li  Li81      1.0  0.1381073299999999  0.89467448  0.3583626866666667  1.0000
  Li  Li82      1.0  0.45478343999999987  0.5748106150000001  0.38390852  1.0000
  Li  Li83      1.0  0.39129811499999984  0.6548180300000003  0.4637721166666666  1.0000
  Li  Li84      1.0  0.04778651999999989  0.7722671950000002  0.47566794333333334  1.0000
  Li  Li85      1.0  0.2594677799999999  0.7561132900000002  0.4067916433333333  1.0000
  Li  Li86      1.0  0.22650330000000005  0.5728207000000001  0.46152611666666665  1.0000
  Li  Li87      1.0  0.1319224999999999  0.6427125950000001  0.5231879933333333  1.0000
  Li  Li88      1.0  0.1726227250000001  0.6155459300000001  0.6488614066666666  1.0000
  Li  Li89      1.0  0.3794923399999999  0.9200622150000002  0.6291799933333333  1.0000
  Li  Li90      1.0  0.49303159  0.7979676700000002  0.3514025533333333  1.0000
  Li  Li91      1.0  0.07313608999999996  0.9145425550000005  0.5717007333333333  1.0000
  Li  Li92      1.0  0.4249970599999998  0.8160679950000004  0.5505454933333332  1.0000
  Li  Li93      1.0  0.2494684149999996  0.5136143950000003  0.5722020066666667  1.0000
  Li  Li94      1.0  0.104154125  0.6698993600000002  0.4053025733333333  1.0000
  Li  Li95      1.0  0.40892079499999984  0.8484821600000003  0.4242743666666666  1.0000
  Li  Li96      1.0  0.3782780449999997  0.6313166300000005  0.5435464366666667  1.0000
  Li  Li97      1.0  0.02735407500000007  0.9842321000000004  0.5100766633333332  1.0000
  Li  Li98      1.0  0.015096379999999977  0.5226452850000001  0.6279567266666667  1.0000
  Li  Li99      1.0  0.315321565  0.6990367750000003  0.6106836799999998  1.0000
  Li  Li100     1.0  0.21278571999999993  0.8440459650000004  0.6279770533333333  1.0000
  Ge  Ge9       1.0  0.27941930500000006  0.50187073  0.3688330733333333  1.0000
  Ge  Ge10      1.0  0.039648550000000074  0.725690425  0.5992627533333333  1.0000
  P   P17       1.0  0.3505833149999999  0.6905557650000002  0.34222153  1.0000
  P   P18       1.0  0.32133484000000007  0.92797798  0.5034242266666666  1.0000
  P   P19       1.0  0.2360896299999999  0.8211166850000002  0.5090422433333334  1.0000
  P   P20       1.0  0.0648677549999999  0.9679513850000003  0.42788733999999995  1.0000
  S   S97       1.0  0.09502317000000007  0.8110653750000001  0.4123792366666666  1.0000
  S   S98       1.0  0.19919246499999993  0.7319651850000002  0.33953844333333333  1.0000
  S   S99       1.0  0.13389252000000004  0.5157075750000001  0.5507935666666667  1.0000
  S   S100      1.0  0.4684346599999999  0.9418679750000001  0.46299629333333325  1.0000
  S   S101      1.0  0.02095105999999998  0.6438294500000002  0.6482123533333333  1.0000
  S   S102      1.0  0.42126879  0.9629207849999999  0.5624345933333335  1.0000
  S   S103      1.0  0.06289868000000001  0.6011787650000001  0.46659409  1.0000
  S   S104      1.0  0.38552993499999993  0.7823545350000002  0.4936359333333333  1.0000
  S   S105      1.0  0.4374409000000001  0.7066680650000001  0.3972447166666666  1.0000
  S   S106      1.0  0.21141636499999972  0.9738156500000003  0.63841943  1.0000
  S   S107      1.0  0.31821533999999985  0.8682357350000003  0.37113718333333334  1.0000
  S   S108      1.0  0.4847781349999999  0.6585360750000001  0.5664206933333333  1.0000
  S   S109      1.0  0.27672204499999986  0.8537261800000003  0.5521322300000001  1.0000
  S   S110      1.0  0.22029986999999987  0.7283592500000002  0.4727088099999999  1.0000
  S   S111      1.0  0.05806246000000004  0.85329169  0.6267183433333332  1.0000
  S   S112      1.0  0.35756149999999975  0.561528295  0.6494229233333333  1.0000
  S   S113      1.0  0.23236711499999982  0.9310755450000001  0.46620812  1.0000
  S   S114      1.0  0.4870140249999999  0.945216415  0.3785033133333333  1.0000
  S   S115      1.0  0.3248614649999998  0.55674579  0.5032439433333333  1.0000
  S   S116      1.0  0.21515481000000006  0.6709014200000001  0.5793640999999999  1.0000
  S   S117      1.0  0.3037818649999998  0.6044961800000004  0.39650390999999996  1.0000
  S   S118      1.0  0.141355065  0.5322368700000001  0.3871425533333333  1.0000
  S   S119      1.0  0.39298087499999973  0.7829407750000001  0.62847058  1.0000
  S   S120      1.0  0.08939725999999995  0.8028061400000003  0.5341815933333333  1.0000
  Li  Li101     1.0  0.13810732999999983  0.8946744800000002  0.69169602  1.0000
  Li  Li102     1.0  0.45478343999999987  0.5748106150000001  0.7172418533333332  1.0000
  Li  Li103     1.0  0.39129811499999967  0.6548180299999999  0.7971054499999999  1.0000
  Li  Li104     1.0  0.047786519999999805  0.7722671950000001  0.8090012766666667  1.0000
  Li  Li105     1.0  0.25946777999999987  0.75611329  0.7401249766666667  1.0000
  Li  Li106     1.0  0.22650329999999977  0.5728207000000001  0.7948594499999999  1.0000
  Li  Li107     1.0  0.1319224999999999  0.6427125950000001  0.8565213266666667  1.0000
  Li  Li108     1.0  0.17262272499999992  0.6155459299999999  0.9821947400000001  1.0000
  Li  Li109     1.0  0.37949234  0.9200622150000001  0.9625133266666666  1.0000
  Li  Li110     1.0  0.49303159  0.79796767  0.6847358866666666  1.0000
  Li  Li111     1.0  0.07313608999999985  0.9145425550000003  0.9050340666666666  1.0000
  Li  Li112     1.0  0.4249970599999999  0.8160679950000002  0.8838788266666666  1.0000
  Li  Li113     1.0  0.249468415  0.5136143950000001  0.9055353399999998  1.0000
  Li  Li114     1.0  0.10415412499999992  0.66989936  0.7386359066666667  1.0000
  Li  Li115     1.0  0.4089207949999999  0.8484821600000001  0.7576076999999999  1.0000
  Li  Li116     1.0  0.37827804499999973  0.6313166300000003  0.8768797699999998  1.0000
  Li  Li117     1.0  0.027354074999999735  0.9842321000000004  0.8434099966666667  1.0000
  Li  Li118     1.0  0.015096380000000034  0.5226452850000001  0.9612900599999998  1.0000
  Li  Li119     1.0  0.3153215649999998  0.6990367750000003  0.9440170133333333  1.0000
  Li  Li120     1.0  0.21278571999999982  0.8440459650000005  0.9613103866666667  1.0000
  Ge  Ge11      1.0  0.2794193049999999  0.5018707300000002  0.7021664066666666  1.0000
  Ge  Ge12      1.0  0.03964854999999996  0.725690425  0.9325960866666666  1.0000
  P   P21       1.0  0.35058331499999984  0.6905557650000003  0.6755548633333333  1.0000
  P   P22       1.0  0.3213348399999999  0.9279779800000001  0.8367575599999999  1.0000
  P   P23       1.0  0.2360896299999999  0.8211166849999999  0.8423755766666665  1.0000
  P   P24       1.0  0.06486775499999979  0.9679513850000003  0.7612206733333333  1.0000
  S   S121      1.0  0.09502316999999996  0.8110653750000001  0.74571257  1.0000
  S   S122      1.0  0.1991924649999998  0.7319651850000003  0.6728717766666665  1.0000
  S   S123      1.0  0.13389251999999988  0.5157075750000002  0.8841268999999999  1.0000
  S   S124      1.0  0.4684346599999996  0.9418679750000002  0.7963296266666666  1.0000
  S   S125      1.0  0.020951059999999924  0.6438294500000002  0.9815456866666665  1.0000
  S   S126      1.0  0.42126878999999984  0.962920785  0.8957679266666666  1.0000
  S   S127      1.0  0.06289867999999993  0.6011787650000002  0.7999274233333332  1.0000
  S   S128      1.0  0.38552993499999993  0.7823545350000002  0.8269692666666666  1.0000
  S   S129      1.0  0.43744089999999974  0.7066680650000001  0.7305780500000001  1.0000
  S   S130      1.0  0.21141636499999972  0.9738156500000003  0.9717527633333333  1.0000
  S   S131      1.0  0.3182153399999998  0.8682357350000002  0.7044705166666666  1.0000
  S   S132      1.0  0.484778135  0.6585360750000001  0.8997540266666666  1.0000
  S   S133      1.0  0.2767220450000002  0.8537261800000001  0.8854655633333331  1.0000
  S   S134      1.0  0.22029986999999973  0.7283592500000001  0.8060421433333335  1.0000
  S   S135      1.0  0.05806246000000004  0.85329169  0.9600516766666666  1.0000
  S   S136      1.0  0.3575614999999995  0.5615282950000005  0.9827562566666666  1.0000
  S   S137      1.0  0.23236711499999993  0.9310755450000002  0.7995414533333333  1.0000
  S   S138      1.0  0.4870140249999999  0.9452164150000004  0.7118366466666666  1.0000
  S   S139      1.0  0.32486146499999996  0.55674579  0.8365772766666667  1.0000
  S   S140      1.0  0.2151548100000001  0.6709014200000001  0.9126974333333332  1.0000
  S   S141      1.0  0.30378186499999993  0.6044961800000002  0.7298372433333334  1.0000
  S   S142      1.0  0.14135506499999997  0.53223687  0.7204758866666666  1.0000
  S   S143      1.0  0.3929808749999997  0.782940775  0.9618039133333333  1.0000
  S   S144      1.0  0.08939725999999984  0.8028061400000003  0.8675149266666666  1.0000
  Li  Li121     1.0  0.63810733  0.39467448000000016  0.02502935333333333  1.0000
  Li  Li122     1.0  0.9547834399999997  0.074810615  0.05057518666666666  1.0000
  Li  Li123     1.0  0.891298115  0.15481803  0.13043878333333334  1.0000
  Li  Li124     1.0  0.54778652  0.272267195  0.14233461000000003  1.0000
  Li  Li125     1.0  0.7594677799999997  0.25611329  0.07345830999999999  1.0000
  Li  Li126     1.0  0.7265033  0.07282070000000002  0.1281927833333333  1.0000
  Li  Li127     1.0  0.6319224999999999  0.142712595  0.18985466  1.0000
  Li  Li128     1.0  0.6726227250000001  0.11554593000000003  0.3155280733333333  1.0000
  Li  Li129     1.0  0.8794923399999998  0.4200622150000002  0.29584666  1.0000
  Li  Li130     1.0  0.9930315900000001  0.2979676700000002  0.018069219999999997  1.0000
  Li  Li131     1.0  0.5731360899999998  0.41454255500000026  0.23836739999999998  1.0000
  Li  Li132     1.0  0.9249970599999998  0.3160679950000002  0.21721215999999996  1.0000
  Li  Li133     1.0  0.7494684149999997  0.013614395000000022  0.23886867333333328  1.0000
  Li  Li134     1.0  0.6041541249999999  0.16989936000000005  0.07196923999999999  1.0000
  Li  Li135     1.0  0.9089207949999996  0.3484821600000001  0.09094103333333331  1.0000
  Li  Li136     1.0  0.8782780449999998  0.1313166300000001  0.2102131033333333  1.0000
  Li  Li137     1.0  0.527354075  0.4842321  0.17674333  1.0000
  Li  Li138     1.0  0.51509638  0.02264528499999999  0.29462339333333337  1.0000
  Li  Li139     1.0  0.8153215649999995  0.19903677500000017  0.27735034666666664  1.0000
  Li  Li140     1.0  0.71278572  0.3440459650000001  0.29464372000000005  1.0000
  Ge  Ge13      1.0  0.7794193049999998  0.0018707300000000012  0.03549974  1.0000
  Ge  Ge14      1.0  0.5396485499999998  0.22569042500000003  0.26592941999999997  1.0000
  P   P25       1.0  0.8505833149999996  0.19055576500000007  0.008888196666666667  1.0000
  P   P26       1.0  0.82133484  0.42797798000000004  0.17009089333333333  1.0000
  P   P27       1.0  0.7360896299999998  0.321116685  0.17570891  1.0000
  P   P28       1.0  0.5648677549999997  0.467951385  0.09455400666666666  1.0000
  S   S145      1.0  0.5950231699999999  0.31106537500000014  0.07904590333333332  1.0000
  S   S146      1.0  0.6991924649999999  0.23196518500000007  0.006205109999999999  1.0000
  S   S147      1.0  0.6338925199999998  0.015707575000000012  0.2174602333333333  1.0000
  S   S148      1.0  0.9684346599999996  0.4418679750000001  0.12966296  1.0000
  S   S149      1.0  0.5209510599999998  0.14382945000000008  0.31487901999999995  1.0000
  S   S150      1.0  0.9212687899999998  0.462920785  0.22910126000000006  1.0000
  S   S151      1.0  0.5628986799999998  0.10117876500000006  0.13326075666666665  1.0000
  S   S152      1.0  0.8855299349999999  0.282354535  0.1603026  1.0000
  S   S153      1.0  0.9374408999999999  0.206668065  0.06391138333333332  1.0000
  S   S154      1.0  0.7114163649999996  0.47381565  0.3050860966666667  1.0000
  S   S155      1.0  0.81821534  0.3682357350000002  0.03780385  1.0000
  S   S156      1.0  0.9847781349999996  0.15853607500000008  0.23308736000000005  1.0000
  S   S157      1.0  0.7767220449999995  0.35372618000000017  0.21879889666666666  1.0000
  S   S158      1.0  0.72029987  0.22835925000000004  0.13937547666666666  1.0000
  S   S159      1.0  0.55806246  0.3532916900000001  0.29338500999999995  1.0000
  S   S160      1.0  0.8575614999999994  0.061528295000000024  0.31608959  1.0000
  S   S161      1.0  0.7323671149999998  0.431075545  0.13287478666666666  1.0000
  S   S162      1.0  0.9870140249999999  0.445216415  0.045169980000000005  1.0000
  S   S163      1.0  0.8248614649999998  0.05674579000000001  0.16991061  1.0000
  S   S164      1.0  0.7151548099999999  0.17090142000000005  0.24603076666666665  1.0000
  S   S165      1.0  0.8037818649999997  0.10449618000000001  0.06317057666666666  1.0000
  S   S166      1.0  0.641355065  0.032236870000000015  0.05380921999999999  1.0000
  S   S167      1.0  0.8929808749999997  0.282940775  0.29513724666666674  1.0000
  S   S168      1.0  0.5893972599999999  0.30280614  0.20084826  1.0000
  Li  Li141     1.0  0.63810733  0.3946744800000001  0.3583626866666667  1.0000
  Li  Li142     1.0  0.9547834399999998  0.074810615  0.38390852  1.0000
  Li  Li143     1.0  0.8912981150000001  0.15481803  0.4637721166666666  1.0000
  Li  Li144     1.0  0.5477865199999999  0.272267195  0.47566794333333334  1.0000
  Li  Li145     1.0  0.7594677799999999  0.25611329  0.4067916433333333  1.0000
  Li  Li146     1.0  0.7265033  0.07282070000000003  0.46152611666666665  1.0000
  Li  Li147     1.0  0.6319224999999998  0.142712595  0.5231879933333333  1.0000
  Li  Li148     1.0  0.6726227250000002  0.11554593000000005  0.6488614066666666  1.0000
  Li  Li149     1.0  0.87949234  0.4200622150000002  0.6291799933333333  1.0000
  Li  Li150     1.0  0.9930315899999999  0.29796767000000013  0.3514025533333333  1.0000
  Li  Li151     1.0  0.57313609  0.4145425550000003  0.5717007333333333  1.0000
  Li  Li152     1.0  0.9249970599999998  0.3160679950000001  0.5505454933333332  1.0000
  Li  Li153     1.0  0.7494684149999995  0.013614395000000022  0.5722020066666667  1.0000
  Li  Li154     1.0  0.6041541249999999  0.16989936000000008  0.4053025733333333  1.0000
  Li  Li155     1.0  0.9089207949999993  0.34848216000000004  0.4242743666666666  1.0000
  Li  Li156     1.0  0.8782780449999998  0.1313166300000001  0.5435464366666667  1.0000
  Li  Li157     1.0  0.5273540750000001  0.48423210000000005  0.5100766633333332  1.0000
  Li  Li158     1.0  0.5150963799999999  0.02264528499999999  0.6279567266666667  1.0000
  Li  Li159     1.0  0.8153215649999996  0.1990367750000002  0.6106836799999998  1.0000
  Li  Li160     1.0  0.7127857199999995  0.34404596500000023  0.6279770533333333  1.0000
  Ge  Ge15      1.0  0.7794193049999997  0.0018707299999999995  0.3688330733333333  1.0000
  Ge  Ge16      1.0  0.53964855  0.225690425  0.5992627533333333  1.0000
  P   P29       1.0  0.8505833149999998  0.19055576500000007  0.34222153  1.0000
  P   P30       1.0  0.82133484  0.42797798  0.5034242266666666  1.0000
  P   P31       1.0  0.7360896299999999  0.321116685  0.5090422433333334  1.0000
  P   P32       1.0  0.5648677549999997  0.467951385  0.42788733999999995  1.0000
  S   S169      1.0  0.59502317  0.31106537500000014  0.4123792366666666  1.0000
  S   S170      1.0  0.699192465  0.23196518500000002  0.33953844333333333  1.0000
  S   S171      1.0  0.6338925199999998  0.01570757500000002  0.5507935666666667  1.0000
  S   S172      1.0  0.9684346599999996  0.4418679750000001  0.46299629333333325  1.0000
  S   S173      1.0  0.5209510599999999  0.14382945000000008  0.6482123533333333  1.0000
  S   S174      1.0  0.9212687899999996  0.46292078500000017  0.5624345933333335  1.0000
  S   S175      1.0  0.56289868  0.10117876500000003  0.46659409  1.0000
  S   S176      1.0  0.885529935  0.282354535  0.4936359333333333  1.0000
  S   S177      1.0  0.9374409  0.20666806500000004  0.3972447166666666  1.0000
  S   S178      1.0  0.7114163649999999  0.47381565000000003  0.63841943  1.0000
  S   S179      1.0  0.81821534  0.3682357350000001  0.37113718333333334  1.0000
  S   S180      1.0  0.9847781349999996  0.1585360750000001  0.5664206933333333  1.0000
  S   S181      1.0  0.7767220449999999  0.3537261800000001  0.5521322300000001  1.0000
  S   S182      1.0  0.7202998699999998  0.22835925000000004  0.4727088099999999  1.0000
  S   S183      1.0  0.55806246  0.3532916900000001  0.6267183433333332  1.0000
  S   S184      1.0  0.8575614999999994  0.061528295  0.6494229233333333  1.0000
  S   S185      1.0  0.7323671149999998  0.431075545  0.46620812  1.0000
  S   S186      1.0  0.9870140249999999  0.445216415  0.3785033133333333  1.0000
  S   S187      1.0  0.8248614649999999  0.05674579000000003  0.5032439433333333  1.0000
  S   S188      1.0  0.71515481  0.17090142000000008  0.5793640999999999  1.0000
  S   S189      1.0  0.8037818649999998  0.10449618000000001  0.39650390999999996  1.0000
  S   S190      1.0  0.641355065  0.032236870000000015  0.3871425533333333  1.0000
  S   S191      1.0  0.8929808749999998  0.282940775  0.62847058  1.0000
  S   S192      1.0  0.5893972599999998  0.30280614  0.5341815933333333  1.0000
  Li  Li161     1.0  0.6381073300000001  0.3946744800000001  0.69169602  1.0000
  Li  Li162     1.0  0.9547834399999998  0.07481061500000002  0.7172418533333332  1.0000
  Li  Li163     1.0  0.8912981149999998  0.15481803000000008  0.7971054499999999  1.0000
  Li  Li164     1.0  0.5477865199999999  0.272267195  0.8090012766666667  1.0000
  Li  Li165     1.0  0.7594677799999997  0.25611328999999994  0.7401249766666667  1.0000
  Li  Li166     1.0  0.7265033000000001  0.07282070000000003  0.7948594499999999  1.0000
  Li  Li167     1.0  0.6319224999999998  0.14271259500000003  0.8565213266666667  1.0000
  Li  Li168     1.0  0.6726227249999999  0.11554593000000002  0.9821947400000001  1.0000
  Li  Li169     1.0  0.8794923399999999  0.4200622150000001  0.9625133266666666  1.0000
  Li  Li170     1.0  0.99303159  0.29796767000000024  0.6847358866666666  1.0000
  Li  Li171     1.0  0.57313609  0.4145425550000002  0.9050340666666666  1.0000
  Li  Li172     1.0  0.9249970599999998  0.3160679950000001  0.8838788266666666  1.0000
  Li  Li173     1.0  0.7494684149999999  0.01361439500000005  0.9055353399999998  1.0000
  Li  Li174     1.0  0.6041541249999998  0.16989936000000005  0.7386359066666667  1.0000
  Li  Li175     1.0  0.9089207949999998  0.34848216000000004  0.7576076999999999  1.0000
  Li  Li176     1.0  0.878278045  0.1313166300000001  0.8768797699999998  1.0000
  Li  Li177     1.0  0.527354075  0.48423209999999994  0.8434099966666667  1.0000
  Li  Li178     1.0  0.5150963800000002  0.02264528500000005  0.9612900599999998  1.0000
  Li  Li179     1.0  0.815321565  0.1990367750000001  0.9440170133333333  1.0000
  Li  Li180     1.0  0.7127857200000001  0.3440459650000001  0.9613103866666667  1.0000
  Ge  Ge17      1.0  0.779419305  0.0018707299999999995  0.7021664066666666  1.0000
  Ge  Ge18      1.0  0.53964855  0.22569042500000003  0.9325960866666666  1.0000
  P   P33       1.0  0.8505833149999996  0.19055576500000007  0.6755548633333333  1.0000
  P   P34       1.0  0.8213348400000001  0.42797798000000004  0.8367575599999999  1.0000
  P   P35       1.0  0.7360896299999998  0.321116685  0.8423755766666665  1.0000
  P   P36       1.0  0.5648677549999997  0.46795138500000005  0.7612206733333333  1.0000
  S   S193      1.0  0.5950231699999998  0.3110653750000001  0.74571257  1.0000
  S   S194      1.0  0.699192465  0.23196518500000016  0.6728717766666665  1.0000
  S   S195      1.0  0.6338925200000001  0.01570757500000002  0.8841268999999999  1.0000
  S   S196      1.0  0.9684346599999998  0.44186797500000013  0.7963296266666666  1.0000
  S   S197      1.0  0.5209510599999998  0.1438294500000001  0.9815456866666665  1.0000
  S   S198      1.0  0.9212687899999998  0.462920785  0.8957679266666666  1.0000
  S   S199      1.0  0.5628986799999998  0.10117876500000006  0.7999274233333332  1.0000
  S   S200      1.0  0.885529935  0.282354535  0.8269692666666666  1.0000
  S   S201      1.0  0.9374408999999999  0.20666806499999998  0.7305780500000001  1.0000
  S   S202      1.0  0.7114163649999995  0.47381565  0.9717527633333333  1.0000
  S   S203      1.0  0.8182153399999997  0.3682357350000001  0.7044705166666666  1.0000
  S   S204      1.0  0.9847781349999993  0.15853607500000003  0.8997540266666666  1.0000
  S   S205      1.0  0.776722045  0.35372618000000017  0.8854655633333331  1.0000
  S   S206      1.0  0.7202998699999998  0.22835925000000004  0.8060421433333335  1.0000
  S   S207      1.0  0.55806246  0.3532916900000001  0.9600516766666666  1.0000
  S   S208      1.0  0.8575614999999995  0.06152829500000008  0.9827562566666666  1.0000
  S   S209      1.0  0.732367115  0.43107554500000006  0.7995414533333333  1.0000
  S   S210      1.0  0.9870140249999996  0.4452164150000001  0.7118366466666666  1.0000
  S   S211      1.0  0.8248614649999997  0.05674579000000003  0.8365772766666667  1.0000
  S   S212      1.0  0.7151548099999998  0.17090142000000008  0.9126974333333332  1.0000
  S   S213      1.0  0.8037818649999997  0.10449617999999998  0.7298372433333334  1.0000
  S   S214      1.0  0.641355065  0.03223687000000004  0.7204758866666666  1.0000
  S   S215      1.0  0.8929808749999999  0.28294077500000003  0.9618039133333333  1.0000
  S   S216      1.0  0.58939726  0.3028061400000002  0.8675149266666666  1.0000
  Li  Li181     1.0  0.6381073300000001  0.89467448  0.02502935333333333  1.0000
  Li  Li182     1.0  0.9547834399999999  0.5748106150000001  0.05057518666666666  1.0000
  Li  Li183     1.0  0.8912981149999999  0.65481803  0.13043878333333334  1.0000
  Li  Li184     1.0  0.5477865199999999  0.7722671950000001  0.14233461000000003  1.0000
  Li  Li185     1.0  0.7594677799999998  0.7561132900000002  0.07345830999999999  1.0000
  Li  Li186     1.0  0.7265033000000001  0.5728207000000001  0.1281927833333333  1.0000
  Li  Li187     1.0  0.6319224999999999  0.6427125950000001  0.18985466  1.0000
  Li  Li188     1.0  0.6726227250000001  0.6155459300000001  0.3155280733333333  1.0000
  Li  Li189     1.0  0.87949234  0.9200622150000002  0.29584666  1.0000
  Li  Li190     1.0  0.99303159  0.7979676700000001  0.018069219999999997  1.0000
  Li  Li191     1.0  0.5731360899999998  0.9145425550000003  0.23836739999999998  1.0000
  Li  Li192     1.0  0.9249970599999996  0.8160679950000003  0.21721215999999996  1.0000
  Li  Li193     1.0  0.7494684149999995  0.5136143950000001  0.23886867333333328  1.0000
  Li  Li194     1.0  0.6041541249999999  0.66989936  0.07196923999999999  1.0000
  Li  Li195     1.0  0.9089207949999998  0.8484821600000002  0.09094103333333331  1.0000
  Li  Li196     1.0  0.8782780449999998  0.6313166300000003  0.2102131033333333  1.0000
  Li  Li197     1.0  0.5273540750000001  0.9842321000000002  0.17674333  1.0000
  Li  Li198     1.0  0.5150963799999999  0.5226452850000001  0.29462339333333337  1.0000
  Li  Li199     1.0  0.8153215649999995  0.6990367750000004  0.27735034666666664  1.0000
  Li  Li200     1.0  0.7127857199999995  0.8440459650000003  0.29464372000000005  1.0000
  Ge  Ge19      1.0  0.7794193049999999  0.50187073  0.03549974  1.0000
  Ge  Ge20      1.0  0.53964855  0.7256904249999999  0.26592941999999997  1.0000
  P   P37       1.0  0.850583315  0.6905557650000002  0.008888196666666667  1.0000
  P   P38       1.0  0.82133484  0.9279779800000001  0.17009089333333333  1.0000
  P   P39       1.0  0.7360896299999999  0.8211166850000002  0.17570891  1.0000
  P   P40       1.0  0.5648677549999997  0.9679513850000001  0.09455400666666666  1.0000
  S   S217      1.0  0.59502317  0.8110653750000001  0.07904590333333332  1.0000
  S   S218      1.0  0.699192465  0.7319651850000002  0.006205109999999999  1.0000
  S   S219      1.0  0.63389252  0.5157075750000001  0.2174602333333333  1.0000
  S   S220      1.0  0.9684346599999999  0.9418679750000001  0.12966296  1.0000
  S   S221      1.0  0.5209510599999998  0.6438294500000002  0.31487901999999995  1.0000
  S   S222      1.0  0.9212687899999994  0.962920785  0.22910126000000006  1.0000
  S   S223      1.0  0.5628986799999999  0.6011787650000002  0.13326075666666665  1.0000
  S   S224      1.0  0.8855299349999995  0.7823545350000001  0.1603026  1.0000
  S   S225      1.0  0.9374408999999997  0.7066680650000002  0.06391138333333332  1.0000
  S   S226      1.0  0.7114163649999997  0.9738156500000001  0.3050860966666667  1.0000
  S   S227      1.0  0.8182153399999998  0.8682357350000002  0.03780385  1.0000
  S   S228      1.0  0.9847781349999999  0.6585360750000001  0.23308736000000005  1.0000
  S   S229      1.0  0.7767220449999999  0.8537261800000003  0.21879889666666666  1.0000
  S   S230      1.0  0.7202998699999998  0.7283592500000002  0.13937547666666666  1.0000
  S   S231      1.0  0.55806246  0.85329169  0.29338500999999995  1.0000
  S   S232      1.0  0.8575614999999998  0.5615282949999999  0.31608959  1.0000
  S   S233      1.0  0.7323671149999997  0.9310755450000002  0.13287478666666666  1.0000
  S   S234      1.0  0.987014025  0.945216415  0.045169980000000005  1.0000
  S   S235      1.0  0.8248614649999997  0.5567457899999999  0.16991061  1.0000
  S   S236      1.0  0.7151548099999997  0.6709014200000001  0.24603076666666665  1.0000
  S   S237      1.0  0.8037818649999996  0.6044961800000002  0.06317057666666666  1.0000
  S   S238      1.0  0.6413550650000001  0.53223687  0.05380921999999999  1.0000
  S   S239      1.0  0.8929808749999997  0.782940775  0.29513724666666674  1.0000
  S   S240      1.0  0.5893972599999998  0.8028061400000003  0.20084826  1.0000
  Li  Li201     1.0  0.6381073300000001  0.89467448  0.3583626866666667  1.0000
  Li  Li202     1.0  0.9547834399999999  0.5748106150000001  0.38390852  1.0000
  Li  Li203     1.0  0.8912981149999999  0.6548180300000003  0.4637721166666666  1.0000
  Li  Li204     1.0  0.5477865199999999  0.7722671950000002  0.47566794333333334  1.0000
  Li  Li205     1.0  0.7594677799999999  0.7561132900000002  0.4067916433333333  1.0000
  Li  Li206     1.0  0.7265033000000001  0.5728207000000001  0.46152611666666665  1.0000
  Li  Li207     1.0  0.6319224999999999  0.6427125950000001  0.5231879933333333  1.0000
  Li  Li208     1.0  0.672622725  0.6155459300000001  0.6488614066666666  1.0000
  Li  Li209     1.0  0.87949234  0.9200622150000002  0.6291799933333333  1.0000
  Li  Li210     1.0  0.9930315899999999  0.7979676700000002  0.3514025533333333  1.0000
  Li  Li211     1.0  0.57313609  0.9145425550000005  0.5717007333333333  1.0000
  Li  Li212     1.0  0.9249970599999996  0.8160679950000004  0.5505454933333332  1.0000
  Li  Li213     1.0  0.7494684149999995  0.5136143950000003  0.5722020066666667  1.0000
  Li  Li214     1.0  0.6041541249999998  0.6698993600000002  0.4053025733333333  1.0000
  Li  Li215     1.0  0.9089207949999996  0.8484821600000003  0.4242743666666666  1.0000
  Li  Li216     1.0  0.8782780449999997  0.6313166300000005  0.5435464366666667  1.0000
  Li  Li217     1.0  0.5273540750000001  0.9842321000000004  0.5100766633333332  1.0000
  Li  Li218     1.0  0.5150963800000001  0.5226452850000001  0.6279567266666667  1.0000
  Li  Li219     1.0  0.8153215649999997  0.6990367750000003  0.6106836799999998  1.0000
  Li  Li220     1.0  0.7127857199999997  0.8440459650000004  0.6279770533333333  1.0000
  Ge  Ge21      1.0  0.7794193049999998  0.50187073  0.3688330733333333  1.0000
  Ge  Ge22      1.0  0.5396485499999998  0.725690425  0.5992627533333333  1.0000
  P   P41       1.0  0.850583315  0.6905557650000002  0.34222153  1.0000
  P   P42       1.0  0.8213348400000001  0.92797798  0.5034242266666666  1.0000
  P   P43       1.0  0.7360896299999999  0.8211166850000002  0.5090422433333334  1.0000
  P   P44       1.0  0.5648677549999997  0.9679513850000003  0.42788733999999995  1.0000
  S   S241      1.0  0.5950231699999999  0.8110653750000001  0.4123792366666666  1.0000
  S   S242      1.0  0.699192465  0.7319651850000002  0.33953844333333333  1.0000
  S   S243      1.0  0.6338925200000001  0.5157075750000001  0.5507935666666667  1.0000
  S   S244      1.0  0.9684346599999999  0.9418679750000001  0.46299629333333325  1.0000
  S   S245      1.0  0.5209510599999998  0.6438294500000002  0.6482123533333333  1.0000
  S   S246      1.0  0.9212687899999997  0.9629207849999999  0.5624345933333335  1.0000
  S   S247      1.0  0.5628986800000001  0.6011787650000001  0.46659409  1.0000
  S   S248      1.0  0.8855299349999998  0.7823545350000002  0.4936359333333333  1.0000
  S   S249      1.0  0.9374409000000001  0.7066680650000001  0.3972447166666666  1.0000
  S   S250      1.0  0.7114163649999995  0.9738156500000003  0.63841943  1.0000
  S   S251      1.0  0.8182153399999998  0.8682357350000003  0.37113718333333334  1.0000
  S   S252      1.0  0.9847781349999999  0.6585360750000001  0.5664206933333333  1.0000
  S   S253      1.0  0.7767220449999999  0.8537261800000003  0.5521322300000001  1.0000
  S   S254      1.0  0.7202998699999998  0.7283592500000002  0.4727088099999999  1.0000
  S   S255      1.0  0.5580624599999998  0.85329169  0.6267183433333332  1.0000
  S   S256      1.0  0.8575614999999998  0.561528295  0.6494229233333333  1.0000
  S   S257      1.0  0.732367115  0.9310755450000001  0.46620812  1.0000
  S   S258      1.0  0.9870140249999998  0.945216415  0.3785033133333333  1.0000
  S   S259      1.0  0.824861465  0.55674579  0.5032439433333333  1.0000
  S   S260      1.0  0.7151548100000001  0.6709014200000001  0.5793640999999999  1.0000
  S   S261      1.0  0.8037818649999998  0.6044961800000004  0.39650390999999996  1.0000
  S   S262      1.0  0.6413550650000001  0.5322368700000001  0.3871425533333333  1.0000
  S   S263      1.0  0.8929808749999999  0.7829407750000001  0.62847058  1.0000
  S   S264      1.0  0.58939726  0.8028061400000003  0.5341815933333333  1.0000
  Li  Li221     1.0  0.6381073299999999  0.8946744800000002  0.69169602  1.0000
  Li  Li222     1.0  0.9547834399999999  0.5748106150000001  0.7172418533333332  1.0000
  Li  Li223     1.0  0.8912981149999999  0.6548180299999999  0.7971054499999999  1.0000
  Li  Li224     1.0  0.5477865199999999  0.7722671950000001  0.8090012766666667  1.0000
  Li  Li225     1.0  0.7594677799999995  0.75611329  0.7401249766666667  1.0000
  Li  Li226     1.0  0.7265033  0.5728207000000001  0.7948594499999999  1.0000
  Li  Li227     1.0  0.6319224999999999  0.6427125950000001  0.8565213266666667  1.0000
  Li  Li228     1.0  0.672622725  0.6155459299999999  0.9821947400000001  1.0000
  Li  Li229     1.0  0.87949234  0.9200622150000001  0.9625133266666666  1.0000
  Li  Li230     1.0  0.99303159  0.79796767  0.6847358866666666  1.0000
  Li  Li231     1.0  0.5731360899999998  0.9145425550000003  0.9050340666666666  1.0000
  Li  Li232     1.0  0.9249970599999996  0.8160679950000002  0.8838788266666666  1.0000
  Li  Li233     1.0  0.7494684149999999  0.5136143950000001  0.9055353399999998  1.0000
  Li  Li234     1.0  0.6041541249999995  0.66989936  0.7386359066666667  1.0000
  Li  Li235     1.0  0.9089207949999999  0.8484821600000001  0.7576076999999999  1.0000
  Li  Li236     1.0  0.8782780449999998  0.6313166300000003  0.8768797699999998  1.0000
  Li  Li237     1.0  0.5273540749999998  0.9842321000000004  0.8434099966666667  1.0000
  Li  Li238     1.0  0.5150963800000001  0.5226452850000001  0.9612900599999998  1.0000
  Li  Li239     1.0  0.8153215649999995  0.6990367750000003  0.9440170133333333  1.0000
  Li  Li240     1.0  0.7127857199999997  0.8440459650000005  0.9613103866666667  1.0000
  Ge  Ge23      1.0  0.7794193049999998  0.5018707300000002  0.7021664066666666  1.0000
  Ge  Ge24      1.0  0.5396485499999999  0.725690425  0.9325960866666666  1.0000
  P   P45       1.0  0.8505833149999998  0.6905557650000003  0.6755548633333333  1.0000
  P   P46       1.0  0.8213348399999998  0.9279779800000001  0.8367575599999999  1.0000
  P   P47       1.0  0.7360896299999997  0.8211166849999999  0.8423755766666665  1.0000
  P   P48       1.0  0.5648677549999995  0.9679513850000003  0.7612206733333333  1.0000
  S   S265      1.0  0.5950231699999999  0.8110653750000001  0.74571257  1.0000
  S   S266      1.0  0.6991924649999999  0.7319651850000003  0.6728717766666665  1.0000
  S   S267      1.0  0.6338925199999998  0.5157075750000002  0.8841268999999999  1.0000
  S   S268      1.0  0.9684346599999999  0.9418679750000002  0.7963296266666666  1.0000
  S   S269      1.0  0.5209510599999997  0.6438294500000002  0.9815456866666665  1.0000
  S   S270      1.0  0.9212687899999996  0.962920785  0.8957679266666666  1.0000
  S   S271      1.0  0.5628986799999997  0.6011787650000002  0.7999274233333332  1.0000
  S   S272      1.0  0.8855299349999998  0.7823545350000002  0.8269692666666666  1.0000
  S   S273      1.0  0.9374408999999999  0.7066680650000001  0.7305780500000001  1.0000
  S   S274      1.0  0.7114163649999995  0.9738156500000003  0.9717527633333333  1.0000
  S   S275      1.0  0.8182153399999998  0.8682357350000002  0.7044705166666666  1.0000
  S   S276      1.0  0.9847781350000001  0.6585360750000001  0.8997540266666666  1.0000
  S   S277      1.0  0.7767220450000001  0.8537261800000001  0.8854655633333331  1.0000
  S   S278      1.0  0.7202998699999998  0.7283592500000001  0.8060421433333335  1.0000
  S   S279      1.0  0.5580624599999998  0.85329169  0.9600516766666666  1.0000
  S   S280      1.0  0.8575614999999991  0.5615282950000005  0.9827562566666666  1.0000
  S   S281      1.0  0.732367115  0.9310755450000002  0.7995414533333333  1.0000
  S   S282      1.0  0.9870140249999996  0.9452164150000004  0.7118366466666666  1.0000
  S   S283      1.0  0.824861465  0.55674579  0.8365772766666667  1.0000
  S   S284      1.0  0.7151548099999999  0.6709014200000001  0.9126974333333332  1.0000
  S   S285      1.0  0.8037818649999998  0.6044961800000002  0.7298372433333334  1.0000
  S   S286      1.0  0.6413550649999998  0.53223687  0.7204758866666666  1.0000
  S   S287      1.0  0.8929808749999997  0.782940775  0.9618039133333333  1.0000
  S   S288      1.0  0.5893972599999998  0.8028061400000003  0.8675149266666666  1.0000
